Small test
     RDKit          3D

 25 25  0  0  0  0  0  0  0  0999 V2000
   -0.7028    2.8810    0.8977 C   0  0  0  0  0  0  0  0  0  0  0  0
   -0.2555    1.8335    0.5017 C   0  0  0  0  0  0  0  0  0  0  0  0
    0.2913    0.5500    0.0168 C   0  0  0  0  0  0  0  0  0  0  0  0
   -0.0441   -0.5449    1.0627 C   0  0  0  0  0  0  0  0  0  0  0  0
   -1.5621   -0.7852    1.2132 C   0  0  0  0  0  0  0  0  0  0  0  0
   -2.3487   -0.6071   -0.1014 C   0  0  0  0  0  0  0  0  0  0  0  0
   -1.4635   -0.8081   -1.3341 C   0  0  0  0  0  0  0  0  0  0  0  0
   -0.3260    0.2292   -1.3832 C   0  0  0  0  0  0  0  0  0  0  0  0
    1.7122    0.7278   -0.0813 O   0  0  0  0  0  0  0  0  0  0  0  0
    2.6441   -0.2410   -0.4851 C   0  0  0  0  0  0  0  0  0  0  0  0
    2.2776   -1.3911   -0.8477 O   0  0  0  0  0  0  0  0  0  0  0  0
    4.0305    0.0872   -0.4918 N   0  0  0  0  0  0  0  0  0  0  0  0
   -1.0959    3.7999    1.2453 H   0  0  0  0  0  0  0  0  0  0  0  0
    0.4219   -1.5063    0.7641 H   0  0  0  0  0  0  0  0  0  0  0  0
    0.3872   -0.2753    2.0523 H   0  0  0  0  0  0  0  0  0  0  0  0
   -1.7207   -1.8154    1.6006 H   0  0  0  0  0  0  0  0  0  0  0  0
   -1.9724   -0.0851    1.9735 H   0  0  0  0  0  0  0  0  0  0  0  0
   -3.1913   -1.3314   -0.1297 H   0  0  0  0  0  0  0  0  0  0  0  0
   -2.7880    0.4143   -0.1370 H   0  0  0  0  0  0  0  0  0  0  0  0
   -2.0822   -0.7216   -2.2534 H   0  0  0  0  0  0  0  0  0  0  0  0
   -1.0341   -1.8341   -1.3137 H   0  0  0  0  0  0  0  0  0  0  0  0
    0.4481   -0.1530   -2.0800 H   0  0  0  0  0  0  0  0  0  0  0  0
   -0.7124    1.1566   -1.8639 H   0  0  0  0  0  0  0  0  0  0  0  0
    4.3459    1.0374   -0.1962 H   0  0  0  0  0  0  0  0  0  0  0  0
    4.7408   -0.6172   -0.7911 H   0  0  0  0  0  0  0  0  0  0  0  0
  1  2  3  0
  2  3  1  0
  3  4  1  0
  4  5  1  0
  5  6  1  0
  6  7  1  0
  7  8  1  0
  3  9  1  0
  9 10  1  0
 10 11  2  0
 10 12  1  0
  8  3  1  0
  1 13  1  0
  4 14  1  0
  4 15  1  0
  5 16  1  0
  5 17  1  0
  6 18  1  0
  6 19  1  0
  7 20  1  0
  7 21  1  0
  8 22  1  0
  8 23  1  0
 12 24  1  0
 12 25  1  0
M  END
$$$$
